# DIS package for MODFLOW-2005 generated by Flopy 3.7.0.dev0
         1        20        15         3         4         2
  0
CONSTANT    5.000000E+01                           #delr                          
CONSTANT    5.000000E+01                           #delc                          
CONSTANT    5.000000E+00                           #model_top                     
CONSTANT   -5.000000E+01                           #botm layer 1                  
      1.000000             1  1.000000  SS
    100.000000           100  1.000000  TR
    100.000000           100  1.000000  TR
