# RIV package for MODFLOW-2005 generated by Flopy 3.7.0.dev0
        15         0
        15         0 # stress period 1
         1        15         1             1.0          2500.0             0.0
         1        15         2             1.0          2500.0             0.0
         1        15         3             1.0          2500.0             0.0
         1        15         4             1.0          2500.0             0.0
         1        15         5             1.0          2500.0             0.0
         1        15         6             1.0          2500.0             0.0
         1        15         7             1.0          2500.0             0.0
         1        15         8             1.0          2500.0             0.0
         1        15         9             1.0          2500.0             0.0
         1        15        10             1.0          2500.0             0.0
         1        15        11             1.0          2500.0             0.0
         1        15        12             1.0          2500.0             0.0
         1        15        13             1.0          2500.0             0.0
         1        15        14             1.0          2500.0             0.0
         1        15        15             1.0          2500.0             0.0
        15         0 # stress period 2
         1        15         1             5.0          2500.0             0.0
         1        15         2             5.0          2500.0             0.0
         1        15         3             5.0          2500.0             0.0
         1        15         4             5.0          2500.0             0.0
         1        15         5             5.0          2500.0             0.0
         1        15         6             5.0          2500.0             0.0
         1        15         7             5.0          2500.0             0.0
         1        15         8             5.0          2500.0             0.0
         1        15         9             5.0          2500.0             0.0
         1        15        10             5.0          2500.0             0.0
         1        15        11             5.0          2500.0             0.0
         1        15        12             5.0          2500.0             0.0
         1        15        13             5.0          2500.0             0.0
         1        15        14             5.0          2500.0             0.0
         1        15        15             5.0          2500.0             0.0
        15         0 # stress period 3
         1        15         1             2.0          2500.0             0.0
         1        15         2             2.0          2500.0             0.0
         1        15         3             2.0          2500.0             0.0
         1        15         4             2.0          2500.0             0.0
         1        15         5             2.0          2500.0             0.0
         1        15         6             2.0          2500.0             0.0
         1        15         7             2.0          2500.0             0.0
         1        15         8             2.0          2500.0             0.0
         1        15         9             2.0          2500.0             0.0
         1        15        10             2.0          2500.0             0.0
         1        15        11             2.0          2500.0             0.0
         1        15        12             2.0          2500.0             0.0
         1        15        13             2.0          2500.0             0.0
         1        15        14             2.0          2500.0             0.0
         1        15        15             2.0          2500.0             0.0
