# CHD package for MODFLOW-2005 generated by Flopy 3.7.0.dev0
        15
        15         0 # stress period 1
         1         1         1             3.0             3.0
         1         1         2             3.0             3.0
         1         1         3             3.0             3.0
         1         1         4             3.0             3.0
         1         1         5             3.0             3.0
         1         1         6             3.0             3.0
         1         1         7             3.0             3.0
         1         1         8             3.0             3.0
         1         1         9             3.0             3.0
         1         1        10             3.0             3.0
         1         1        11             3.0             3.0
         1         1        12             3.0             3.0
         1         1        13             3.0             3.0
         1         1        14             3.0             3.0
         1         1        15             3.0             3.0
        15         0 # stress period 2
         1         1         1             3.0             6.0
         1         1         2             3.0             6.0
         1         1         3             3.0             6.0
         1         1         4             3.0             6.0
         1         1         5             3.0             6.0
         1         1         6             3.0             6.0
         1         1         7             3.0             6.0
         1         1         8             3.0             6.0
         1         1         9             3.0             6.0
         1         1        10             3.0             6.0
         1         1        11             3.0             6.0
         1         1        12             3.0             6.0
         1         1        13             3.0             6.0
         1         1        14             3.0             6.0
         1         1        15             3.0             6.0
        15         0 # stress period 3
         1         1         1             6.0             1.0
         1         1         2             6.0             1.0
         1         1         3             6.0             1.0
         1         1         4             6.0             1.0
         1         1         5             6.0             1.0
         1         1         6             6.0             1.0
         1         1         7             6.0             1.0
         1         1         8             6.0             1.0
         1         1         9             6.0             1.0
         1         1        10             6.0             1.0
         1         1        11             6.0             1.0
         1         1        12             6.0             1.0
         1         1        13             6.0             1.0
         1         1        14             6.0             1.0
         1         1        15             6.0             1.0
