# File generated by Flopy version 3.7.0.dev0 on 02/22/2024 at 15:20:32.
BEGIN options
END options

BEGIN dimensions
  MAXBOUND  11
END dimensions

BEGIN period  1
  1 11 1 3.00000000E+01
  1 11 2 3.00000000E+01
  1 11 3 3.00000000E+01
  1 11 4 3.00000000E+01
  1 11 5 3.00000000E+01
  1 11 6 3.00000000E+01
  1 11 7 3.00000000E+01
  1 11 8 3.00000000E+01
  1 11 9 3.00000000E+01
  1 11 10 3.00000000E+01
  1 11 11 3.00000000E+01
END period  1

