# File generated by Flopy version 3.7.0.dev0 on 02/22/2024 at 15:20:32.
BEGIN options
  SAVE_FLOWS
END options

BEGIN packages
  DIS6  gwf_IdealModel1.dis  dis
  NPF6  gwf_IdealModel1.npf  npf
  IC6  gwf_IdealModel1.ic  ic
  CHD6  gwf_IdealModel1.chd  chd-1
  WEL6  gwf_IdealModel1.wel  wel-1
  OC6  gwf_IdealModel1.oc  oc
END packages

