# File generated by Flopy version 3.7.0.dev0 on 02/22/2024 at 15:20:32.
BEGIN options
  LENGTH_UNITS  meters
END options

BEGIN dimensions
  NLAY  1
  NROW  11
  NCOL  11
END dimensions

BEGIN griddata
  delr
    CONSTANT    1000.00000000
  delc
    CONSTANT    1000.00000000
  top
    CONSTANT      30.00000000
  botm
    CONSTANT     -10.00000000
  idomain
    CONSTANT  1
END griddata

