# File generated by Flopy version 3.7.0.dev0 on 02/22/2024 at 15:20:32.
BEGIN options
  SAVE_SPECIFIC_DISCHARGE
END options

BEGIN griddata
  icelltype
    CONSTANT  1
  k
    INTERNAL  FACTOR  1.0
       150.00000000     150.00000000     150.00000000     150.00000000     150.00000000     150.00000000      90.00000000      90.00000000      90.00000000      90.00000000      90.00000000
       150.00000000     150.00000000     150.00000000     150.00000000     150.00000000     150.00000000      90.00000000      90.00000000      90.00000000      90.00000000      90.00000000
       150.00000000     150.00000000     150.00000000     150.00000000     150.00000000     150.00000000      90.00000000      90.00000000      90.00000000      90.00000000      90.00000000
       150.00000000     150.00000000     150.00000000     150.00000000     150.00000000     150.00000000      90.00000000      90.00000000      90.00000000      90.00000000      90.00000000
        90.00000000      90.00000000      90.00000000      90.00000000      90.00000000      90.00000000      90.00000000      90.00000000      90.00000000      90.00000000      90.00000000
        90.00000000      90.00000000      90.00000000      90.00000000      90.00000000      90.00000000      90.00000000      90.00000000      90.00000000      60.00000000      60.00000000
        90.00000000      90.00000000      90.00000000      90.00000000      90.00000000      90.00000000      90.00000000      90.00000000      90.00000000      60.00000000      60.00000000
        90.00000000      90.00000000      90.00000000      90.00000000      90.00000000      90.00000000      90.00000000      90.00000000      90.00000000      60.00000000      60.00000000
        60.00000000      60.00000000      60.00000000      60.00000000      60.00000000      60.00000000      60.00000000      60.00000000      60.00000000      60.00000000      60.00000000
        60.00000000      60.00000000      60.00000000      60.00000000      60.00000000      60.00000000      60.00000000      60.00000000      60.00000000      60.00000000      60.00000000
        60.00000000      60.00000000      60.00000000      60.00000000      60.00000000      60.00000000      60.00000000      60.00000000      60.00000000      60.00000000      60.00000000
  k33
    INTERNAL  FACTOR  1.0
       150.00000000     150.00000000     150.00000000     150.00000000     150.00000000     150.00000000      90.00000000      90.00000000      90.00000000      90.00000000      90.00000000
       150.00000000     150.00000000     150.00000000     150.00000000     150.00000000     150.00000000      90.00000000      90.00000000      90.00000000      90.00000000      90.00000000
       150.00000000     150.00000000     150.00000000     150.00000000     150.00000000     150.00000000      90.00000000      90.00000000      90.00000000      90.00000000      90.00000000
       150.00000000     150.00000000     150.00000000     150.00000000     150.00000000     150.00000000      90.00000000      90.00000000      90.00000000      90.00000000      90.00000000
        90.00000000      90.00000000      90.00000000      90.00000000      90.00000000      90.00000000      90.00000000      90.00000000      90.00000000      90.00000000      90.00000000
        90.00000000      90.00000000      90.00000000      90.00000000      90.00000000      90.00000000      90.00000000      90.00000000      90.00000000      60.00000000      60.00000000
        90.00000000      90.00000000      90.00000000      90.00000000      90.00000000      90.00000000      90.00000000      90.00000000      90.00000000      60.00000000      60.00000000
        90.00000000      90.00000000      90.00000000      90.00000000      90.00000000      90.00000000      90.00000000      90.00000000      90.00000000      60.00000000      60.00000000
        60.00000000      60.00000000      60.00000000      60.00000000      60.00000000      60.00000000      60.00000000      60.00000000      60.00000000      60.00000000      60.00000000
        60.00000000      60.00000000      60.00000000      60.00000000      60.00000000      60.00000000      60.00000000      60.00000000      60.00000000      60.00000000      60.00000000
        60.00000000      60.00000000      60.00000000      60.00000000      60.00000000      60.00000000      60.00000000      60.00000000      60.00000000      60.00000000      60.00000000
END griddata

