# File generated by Flopy version 3.7.0.dev0 on 02/22/2024 at 15:20:32.
BEGIN options
  PRINT_INPUT
  PRINT_FLOWS
  SAVE_FLOWS
END options

BEGIN dimensions
  MAXBOUND  3
END dimensions

BEGIN period  1
  1 3 4 -1000
  1 6 5 -1500
  1 7 11 -2000
END period  1

