# File generated by Flopy version 3.7.0.dev0 on 02/22/2024 at 15:20:32.
BEGIN options
  TIME_UNITS  days
END options

BEGIN dimensions
  NPER  1
END dimensions

BEGIN perioddata
    1000.00000000  1       1.00000000
END perioddata

