# File generated by Flopy version 3.7.0.dev0 on 02/22/2024 at 15:20:32.
BEGIN options
END options

BEGIN timing
  TDIS6  IdealModel1.tdis
END timing

BEGIN models
  gwf6  gwf_IdealModel1.nam  gwf_IdealModel1
END models

BEGIN exchanges
END exchanges

BEGIN solutiongroup  1
  ims6  gwf_IdealModel1.ims  gwf_IdealModel1
END solutiongroup  1

