# BAS6 package for MODFLOW-2005 generated by Flopy 3.7.0
FREE
INTERNAL               1    (32I10) -1 #ibound layer 1                
        -1        -1        -1        -1        -1        -1        -1        -1        -1        -1        -1        -1        -1        -1        -1        -1        -1        -1        -1        -1        -1        -1        -1        -1        -1        -1        -1        -1        -1        -1        -1        -1
         1         1         1         1         1         1         1         1         1         1         1         1         1         1         1         1         1         1         1         1         1         1         1         1         1         1         1         1         1         1         1         1
         1         1         1         1         1         1         1         1         1         1         1         1         1         1         1         1         1         1         1         1         1         1         1         1         1         1         1         1         1         1         1         1
         1         1         1         1         1         1         1         1         1         1         1         1         1         1         1         1         1         1         1         1         1         1         1         1         1         1         1         1         1         1         1         1
         1         1         1         1         1         1         1         1         1         1         1         1         1         1         1         1         1         1         1         1         1         1         1         1         1         1         1         1         1         1         1         1
         1         1         1         1         1         1         1         1         1         1         1         1         1         1         1         1         1         1         1         1         1         1         1         1         1         1         1         1         1         1         1         1
         1         1         1         1         1         1         1         1         1         1         1         1         1         1         1         1         1         1         1         1         1         1         1         1         1         1         1         1         1         1         1         1
         1         1         1         1         1         1         1         1         1         1         1         1         1         1         1         1         1         1         1         1         1         1         1         1         1         1         1         1         1         1         1         1
         1         1         1         1         1         1         1         1         1         1         1         1         1         1         1         1         1         1         1         1         1         1         1         1         1         1         1         1         1         1         1         1
         1         1         1         1         1         1         1         1         1         1         1         1         1         1         1         1         1         1         1         1         1         1         1         1         1         1         1         1         1         1         1         1
         1         1         1         1         1         1         1         1         1         1         1         1         1         1         1         1         1         1         1         1         1         1         1         1         1         1         1         1         1         1         1         1
         1         1         1         1         1         1         1         1         1         1         1         1         1         1         1         1         1         1         1         1         1         1         1         1         1         1         1         1         1         1         1         1
         1         1         1         1         1         1         1         1         1         1         1         1         1         1         1         1         1         1         1         1         1         1         1         1         1         1         1         1         1         1         1         1
         1         1         1         1         1         1         1         1         1         1         1         1         1         1         1         1         1         1         1         1         1         1         1         1         1         1         1         1         1         1         1         1
         1         1         1         1         1         1         1         1         1         1         1         1         1         1         1         1         1         1         1         1         1         1         1         1         1         1         1         1         1         1         1         1
         1         1         1         1         1         1         1         1         1         1         1         1         1         1         1         1         1         1         1         1         1         1         1         1         1         1         1         1         1         1         1         1
         1         1         1         1         1         1         1         1         1         1         1         1         1         1         1         1         1         1         1         1         1         1         1         1         1         1         1         1         1         1         1         1
         1         1         1         1         1         1         1         1         1         1         1         1         1         1         1         1         1         1         1         1         1         1         1         1         1         1         1         1         1         1         1         1
         1         1         1         1         1         1         1         1         1         1         1         1         1         1         1         1         1         1         1         1         1         1         1         1         1         1         1         1         1         1         1         1
         1         1         1         1         1         1         1         1         1         1         1         1         1         1         1         1         1         1         1         1         1         1         1         1         1         1         1         1         1         1         1         1
         1         1         1         1         1         1         1         1         1         1         1         1         1         1         1         1         1         1         1         1         1         1         1         1         1         1         1         1         1         1         1         1
         1         1         1         1         1         1         1         1         1         1         1         1         1         1         1         1         1         1         1         1         1         1         1         1         1         1         1         1         1         1         1         1
         1         1         1         1         1         1         1         1         1         1         1         1         1         1         1         1         1         1         1         1         1         1         1         1         1         1         1         1         1         1         1         1
         1         1         1         1         1         1         1         1         1         1         1         1         1         1         1         1         1         1         1         1         1         1         1         1         1         1         1         1         1         1         1         1
         1         1         1         1         1         1         1         1         1         1         1         1         1         1         1         1         1         1         1         1         1         1         1         1         1         1         1         1         1         1         1         1
         1         1         1         1         1         1         1         1         1         1         1         1         1         1         1         1         1         1         1         1         1         1         1         1         1         1         1         1         1         1         1         1
         1         1         1         1         1         1         1         1         1         1         1         1         1         1         1         1         1         1         1         1         1         1         1         1         1         1         1         1         1         1         1         1
         1         1         1         1         1         1         1         1         1         1         1         1         1         1         1         1         1         1         1         1         1         1         1         1         1         1         1         1         1         1         1         1
         1         1         1         1         1         1         1         1         1         1         1         1         1         1         1         1         1         1         1         1         1         1         1         1         1         1         1         1         1         1         1         1
         1         1         1         1         1         1         1         1         1         1         1         1         1         1         1         1         1         1         1         1         1         1         1         1         1         1         1         1         1         1         1         1
         1         1         1         1         1         1         1         1         1         1         1         1         1         1         1         1         1         1         1         1         1         1         1         1         1         1         1         1         1         1         1         1
         1         1         1         1         1         1         1         1         1         1         1         1         1         1         1         1         1         1         1         1         1         1         1         1         1         1         1         1         1         1         1         1
         1         1         1         1         1         1         1         1         1         1         1         1         1         1         1         1         1         1         1         1         1         1         1         1         1         1         1         1         1         1         1         1
         1         1         1         1         1         1         1         1         1         1         1         1         1         1         1         1         1         1         1         1         1         1         1         1         1         1         1         1         1         1         1         1
         1         1         1         1         1         1         1         1         1         1         1         1         1         1         1         1         1         1         1         1         1         1         1         1         1         1         1         1         1         1         1         1
         1         1         1         1         1         1         1         1         1         1         1         1         1         1         1         1         1         1         1         1         1         1         1         1         1         1         1         1         1         1         1         1
         1         1         1         1         1         1         1         1         1         1         1         1         1         1         1         1         1         1         1         1         1         1         1         1         1         1         1         1         1         1         1         1
         1         1         1         1         1         1         1         1         1         1         1         1         1         1         1         1         1         1         1         1         1         1         1         1         1         1         1         1         1         1         1         1
         1         1         1         1         1         1         1         1         1         1         1         1         1         1         1         1         1         1         1         1         1         1         1         1         1         1         1         1         1         1         1         1
        -1        -1        -1        -1        -1        -1        -1        -1        -1        -1        -1        -1        -1        -1        -1        -1        -1        -1        -1        -1        -1        -1        -1        -1        -1        -1        -1        -1        -1        -1        -1        -1
   -999.99
INTERNAL               1  (32E15.6) -1 #strt layer 1                  
   2.500000E+02   2.500000E+02   2.500000E+02   2.500000E+02   2.500000E+02   2.500000E+02   2.500000E+02   2.500000E+02   2.500000E+02   2.500000E+02   2.500000E+02   2.500000E+02   2.500000E+02   2.500000E+02   2.500000E+02   2.500000E+02   2.500000E+02   2.500000E+02   2.500000E+02   2.500000E+02   2.500000E+02   2.500000E+02   2.500000E+02   2.500000E+02   2.500000E+02   2.500000E+02   2.500000E+02   2.500000E+02   2.500000E+02   2.500000E+02   2.500000E+02   2.500000E+02
   1.450000E+02   1.450000E+02   1.450000E+02   1.450000E+02   1.450000E+02   1.450000E+02   1.450000E+02   1.450000E+02   1.450000E+02   1.450000E+02   1.450000E+02   1.450000E+02   1.450000E+02   1.450000E+02   1.450000E+02   1.450000E+02   1.450000E+02   1.450000E+02   1.450000E+02   1.450000E+02   1.450000E+02   1.450000E+02   1.450000E+02   1.450000E+02   1.450000E+02   1.450000E+02   1.450000E+02   1.450000E+02   1.450000E+02   1.450000E+02   1.450000E+02   1.450000E+02
   1.450000E+02   1.450000E+02   1.450000E+02   1.450000E+02   1.450000E+02   1.450000E+02   1.450000E+02   1.450000E+02   1.450000E+02   1.450000E+02   1.450000E+02   1.450000E+02   1.450000E+02   1.450000E+02   1.450000E+02   1.450000E+02   1.450000E+02   1.450000E+02   1.450000E+02   1.450000E+02   1.450000E+02   1.450000E+02   1.450000E+02   1.450000E+02   1.450000E+02   1.450000E+02   1.450000E+02   1.450000E+02   1.450000E+02   1.450000E+02   1.450000E+02   1.450000E+02
   1.450000E+02   1.450000E+02   1.450000E+02   1.450000E+02   1.450000E+02   1.450000E+02   1.450000E+02   1.450000E+02   1.450000E+02   1.450000E+02   1.450000E+02   1.450000E+02   1.450000E+02   1.450000E+02   1.450000E+02   1.450000E+02   1.450000E+02   1.450000E+02   1.450000E+02   1.450000E+02   1.450000E+02   1.450000E+02   1.450000E+02   1.450000E+02   1.450000E+02   1.450000E+02   1.450000E+02   1.450000E+02   1.450000E+02   1.450000E+02   1.450000E+02   1.450000E+02
   1.450000E+02   1.450000E+02   1.450000E+02   1.450000E+02   1.450000E+02   1.450000E+02   1.450000E+02   1.450000E+02   1.450000E+02   1.450000E+02   1.450000E+02   1.450000E+02   1.450000E+02   1.450000E+02   1.450000E+02   1.450000E+02   1.450000E+02   1.450000E+02   1.450000E+02   1.450000E+02   1.450000E+02   1.450000E+02   1.450000E+02   1.450000E+02   1.450000E+02   1.450000E+02   1.450000E+02   1.450000E+02   1.450000E+02   1.450000E+02   1.450000E+02   1.450000E+02
   1.450000E+02   1.450000E+02   1.450000E+02   1.450000E+02   1.450000E+02   1.450000E+02   1.450000E+02   1.450000E+02   1.450000E+02   1.450000E+02   1.450000E+02   1.450000E+02   1.450000E+02   1.450000E+02   1.450000E+02   1.450000E+02   1.450000E+02   1.450000E+02   1.450000E+02   1.450000E+02   1.450000E+02   1.450000E+02   1.450000E+02   1.450000E+02   1.450000E+02   1.450000E+02   1.450000E+02   1.450000E+02   1.450000E+02   1.450000E+02   1.450000E+02   1.450000E+02
   1.450000E+02   1.450000E+02   1.450000E+02   1.450000E+02   1.450000E+02   1.450000E+02   1.450000E+02   1.450000E+02   1.450000E+02   1.450000E+02   1.450000E+02   1.450000E+02   1.450000E+02   1.450000E+02   1.450000E+02   1.450000E+02   1.450000E+02   1.450000E+02   1.450000E+02   1.450000E+02   1.450000E+02   1.450000E+02   1.450000E+02   1.450000E+02   1.450000E+02   1.450000E+02   1.450000E+02   1.450000E+02   1.450000E+02   1.450000E+02   1.450000E+02   1.450000E+02
   1.450000E+02   1.450000E+02   1.450000E+02   1.450000E+02   1.450000E+02   1.450000E+02   1.450000E+02   1.450000E+02   1.450000E+02   1.450000E+02   1.450000E+02   1.450000E+02   1.450000E+02   1.450000E+02   1.450000E+02   1.450000E+02   1.450000E+02   1.450000E+02   1.450000E+02   1.450000E+02   1.450000E+02   1.450000E+02   1.450000E+02   1.450000E+02   1.450000E+02   1.450000E+02   1.450000E+02   1.450000E+02   1.450000E+02   1.450000E+02   1.450000E+02   1.450000E+02
   1.450000E+02   1.450000E+02   1.450000E+02   1.450000E+02   1.450000E+02   1.450000E+02   1.450000E+02   1.450000E+02   1.450000E+02   1.450000E+02   1.450000E+02   1.450000E+02   1.450000E+02   1.450000E+02   1.450000E+02   1.450000E+02   1.450000E+02   1.450000E+02   1.450000E+02   1.450000E+02   1.450000E+02   1.450000E+02   1.450000E+02   1.450000E+02   1.450000E+02   1.450000E+02   1.450000E+02   1.450000E+02   1.450000E+02   1.450000E+02   1.450000E+02   1.450000E+02
   1.450000E+02   1.450000E+02   1.450000E+02   1.450000E+02   1.450000E+02   1.450000E+02   1.450000E+02   1.450000E+02   1.450000E+02   1.450000E+02   1.450000E+02   1.450000E+02   1.450000E+02   1.450000E+02   1.450000E+02   1.450000E+02   1.450000E+02   1.450000E+02   1.450000E+02   1.450000E+02   1.450000E+02   1.450000E+02   1.450000E+02   1.450000E+02   1.450000E+02   1.450000E+02   1.450000E+02   1.450000E+02   1.450000E+02   1.450000E+02   1.450000E+02   1.450000E+02
   1.450000E+02   1.450000E+02   1.450000E+02   1.450000E+02   1.450000E+02   1.450000E+02   1.450000E+02   1.450000E+02   1.450000E+02   1.450000E+02   1.450000E+02   1.450000E+02   1.450000E+02   1.450000E+02   1.450000E+02   1.450000E+02   1.450000E+02   1.450000E+02   1.450000E+02   1.450000E+02   1.450000E+02   1.450000E+02   1.450000E+02   1.450000E+02   1.450000E+02   1.450000E+02   1.450000E+02   1.450000E+02   1.450000E+02   1.450000E+02   1.450000E+02   1.450000E+02
   1.450000E+02   1.450000E+02   1.450000E+02   1.450000E+02   1.450000E+02   1.450000E+02   1.450000E+02   1.450000E+02   1.450000E+02   1.450000E+02   1.450000E+02   1.450000E+02   1.450000E+02   1.450000E+02   1.450000E+02   1.450000E+02   1.450000E+02   1.450000E+02   1.450000E+02   1.450000E+02   1.450000E+02   1.450000E+02   1.450000E+02   1.450000E+02   1.450000E+02   1.450000E+02   1.450000E+02   1.450000E+02   1.450000E+02   1.450000E+02   1.450000E+02   1.450000E+02
   1.450000E+02   1.450000E+02   1.450000E+02   1.450000E+02   1.450000E+02   1.450000E+02   1.450000E+02   1.450000E+02   1.450000E+02   1.450000E+02   1.450000E+02   1.450000E+02   1.450000E+02   1.450000E+02   1.450000E+02   1.450000E+02   1.450000E+02   1.450000E+02   1.450000E+02   1.450000E+02   1.450000E+02   1.450000E+02   1.450000E+02   1.450000E+02   1.450000E+02   1.450000E+02   1.450000E+02   1.450000E+02   1.450000E+02   1.450000E+02   1.450000E+02   1.450000E+02
   1.450000E+02   1.450000E+02   1.450000E+02   1.450000E+02   1.450000E+02   1.450000E+02   1.450000E+02   1.450000E+02   1.450000E+02   1.450000E+02   1.450000E+02   1.450000E+02   1.450000E+02   1.450000E+02   1.450000E+02   1.450000E+02   1.450000E+02   1.450000E+02   1.450000E+02   1.450000E+02   1.450000E+02   1.450000E+02   1.450000E+02   1.450000E+02   1.450000E+02   1.450000E+02   1.450000E+02   1.450000E+02   1.450000E+02   1.450000E+02   1.450000E+02   1.450000E+02
   1.450000E+02   1.450000E+02   1.450000E+02   1.450000E+02   1.450000E+02   1.450000E+02   1.450000E+02   1.450000E+02   1.450000E+02   1.450000E+02   1.450000E+02   1.450000E+02   1.450000E+02   1.450000E+02   1.450000E+02   1.450000E+02   1.450000E+02   1.450000E+02   1.450000E+02   1.450000E+02   1.450000E+02   1.450000E+02   1.450000E+02   1.450000E+02   1.450000E+02   1.450000E+02   1.450000E+02   1.450000E+02   1.450000E+02   1.450000E+02   1.450000E+02   1.450000E+02
   1.450000E+02   1.450000E+02   1.450000E+02   1.450000E+02   1.450000E+02   1.450000E+02   1.450000E+02   1.450000E+02   1.450000E+02   1.450000E+02   1.450000E+02   1.450000E+02   1.450000E+02   1.450000E+02   1.450000E+02   1.450000E+02   1.450000E+02   1.450000E+02   1.450000E+02   1.450000E+02   1.450000E+02   1.450000E+02   1.450000E+02   1.450000E+02   1.450000E+02   1.450000E+02   1.450000E+02   1.450000E+02   1.450000E+02   1.450000E+02   1.450000E+02   1.450000E+02
   1.450000E+02   1.450000E+02   1.450000E+02   1.450000E+02   1.450000E+02   1.450000E+02   1.450000E+02   1.450000E+02   1.450000E+02   1.450000E+02   1.450000E+02   1.450000E+02   1.450000E+02   1.450000E+02   1.450000E+02   1.450000E+02   1.450000E+02   1.450000E+02   1.450000E+02   1.450000E+02   1.450000E+02   1.450000E+02   1.450000E+02   1.450000E+02   1.450000E+02   1.450000E+02   1.450000E+02   1.450000E+02   1.450000E+02   1.450000E+02   1.450000E+02   1.450000E+02
   1.450000E+02   1.450000E+02   1.450000E+02   1.450000E+02   1.450000E+02   1.450000E+02   1.450000E+02   1.450000E+02   1.450000E+02   1.450000E+02   1.450000E+02   1.450000E+02   1.450000E+02   1.450000E+02   1.450000E+02   1.450000E+02   1.450000E+02   1.450000E+02   1.450000E+02   1.450000E+02   1.450000E+02   1.450000E+02   1.450000E+02   1.450000E+02   1.450000E+02   1.450000E+02   1.450000E+02   1.450000E+02   1.450000E+02   1.450000E+02   1.450000E+02   1.450000E+02
   1.450000E+02   1.450000E+02   1.450000E+02   1.450000E+02   1.450000E+02   1.450000E+02   1.450000E+02   1.450000E+02   1.450000E+02   1.450000E+02   1.450000E+02   1.450000E+02   1.450000E+02   1.450000E+02   1.450000E+02   1.450000E+02   1.450000E+02   1.450000E+02   1.450000E+02   1.450000E+02   1.450000E+02   1.450000E+02   1.450000E+02   1.450000E+02   1.450000E+02   1.450000E+02   1.450000E+02   1.450000E+02   1.450000E+02   1.450000E+02   1.450000E+02   1.450000E+02
   1.450000E+02   1.450000E+02   1.450000E+02   1.450000E+02   1.450000E+02   1.450000E+02   1.450000E+02   1.450000E+02   1.450000E+02   1.450000E+02   1.450000E+02   1.450000E+02   1.450000E+02   1.450000E+02   1.450000E+02   1.450000E+02   1.450000E+02   1.450000E+02   1.450000E+02   1.450000E+02   1.450000E+02   1.450000E+02   1.450000E+02   1.450000E+02   1.450000E+02   1.450000E+02   1.450000E+02   1.450000E+02   1.450000E+02   1.450000E+02   1.450000E+02   1.450000E+02
   1.450000E+02   1.450000E+02   1.450000E+02   1.450000E+02   1.450000E+02   1.450000E+02   1.450000E+02   1.450000E+02   1.450000E+02   1.450000E+02   1.450000E+02   1.450000E+02   1.450000E+02   1.450000E+02   1.450000E+02   1.450000E+02   1.450000E+02   1.450000E+02   1.450000E+02   1.450000E+02   1.450000E+02   1.450000E+02   1.450000E+02   1.450000E+02   1.450000E+02   1.450000E+02   1.450000E+02   1.450000E+02   1.450000E+02   1.450000E+02   1.450000E+02   1.450000E+02
   1.450000E+02   1.450000E+02   1.450000E+02   1.450000E+02   1.450000E+02   1.450000E+02   1.450000E+02   1.450000E+02   1.450000E+02   1.450000E+02   1.450000E+02   1.450000E+02   1.450000E+02   1.450000E+02   1.450000E+02   1.450000E+02   1.450000E+02   1.450000E+02   1.450000E+02   1.450000E+02   1.450000E+02   1.450000E+02   1.450000E+02   1.450000E+02   1.450000E+02   1.450000E+02   1.450000E+02   1.450000E+02   1.450000E+02   1.450000E+02   1.450000E+02   1.450000E+02
   1.450000E+02   1.450000E+02   1.450000E+02   1.450000E+02   1.450000E+02   1.450000E+02   1.450000E+02   1.450000E+02   1.450000E+02   1.450000E+02   1.450000E+02   1.450000E+02   1.450000E+02   1.450000E+02   1.450000E+02   1.450000E+02   1.450000E+02   1.450000E+02   1.450000E+02   1.450000E+02   1.450000E+02   1.450000E+02   1.450000E+02   1.450000E+02   1.450000E+02   1.450000E+02   1.450000E+02   1.450000E+02   1.450000E+02   1.450000E+02   1.450000E+02   1.450000E+02
   1.450000E+02   1.450000E+02   1.450000E+02   1.450000E+02   1.450000E+02   1.450000E+02   1.450000E+02   1.450000E+02   1.450000E+02   1.450000E+02   1.450000E+02   1.450000E+02   1.450000E+02   1.450000E+02   1.450000E+02   1.450000E+02   1.450000E+02   1.450000E+02   1.450000E+02   1.450000E+02   1.450000E+02   1.450000E+02   1.450000E+02   1.450000E+02   1.450000E+02   1.450000E+02   1.450000E+02   1.450000E+02   1.450000E+02   1.450000E+02   1.450000E+02   1.450000E+02
   1.450000E+02   1.450000E+02   1.450000E+02   1.450000E+02   1.450000E+02   1.450000E+02   1.450000E+02   1.450000E+02   1.450000E+02   1.450000E+02   1.450000E+02   1.450000E+02   1.450000E+02   1.450000E+02   1.450000E+02   1.450000E+02   1.450000E+02   1.450000E+02   1.450000E+02   1.450000E+02   1.450000E+02   1.450000E+02   1.450000E+02   1.450000E+02   1.450000E+02   1.450000E+02   1.450000E+02   1.450000E+02   1.450000E+02   1.450000E+02   1.450000E+02   1.450000E+02
   1.450000E+02   1.450000E+02   1.450000E+02   1.450000E+02   1.450000E+02   1.450000E+02   1.450000E+02   1.450000E+02   1.450000E+02   1.450000E+02   1.450000E+02   1.450000E+02   1.450000E+02   1.450000E+02   1.450000E+02   1.450000E+02   1.450000E+02   1.450000E+02   1.450000E+02   1.450000E+02   1.450000E+02   1.450000E+02   1.450000E+02   1.450000E+02   1.450000E+02   1.450000E+02   1.450000E+02   1.450000E+02   1.450000E+02   1.450000E+02   1.450000E+02   1.450000E+02
   1.450000E+02   1.450000E+02   1.450000E+02   1.450000E+02   1.450000E+02   1.450000E+02   1.450000E+02   1.450000E+02   1.450000E+02   1.450000E+02   1.450000E+02   1.450000E+02   1.450000E+02   1.450000E+02   1.450000E+02   1.450000E+02   1.450000E+02   1.450000E+02   1.450000E+02   1.450000E+02   1.450000E+02   1.450000E+02   1.450000E+02   1.450000E+02   1.450000E+02   1.450000E+02   1.450000E+02   1.450000E+02   1.450000E+02   1.450000E+02   1.450000E+02   1.450000E+02
   1.450000E+02   1.450000E+02   1.450000E+02   1.450000E+02   1.450000E+02   1.450000E+02   1.450000E+02   1.450000E+02   1.450000E+02   1.450000E+02   1.450000E+02   1.450000E+02   1.450000E+02   1.450000E+02   1.450000E+02   1.450000E+02   1.450000E+02   1.450000E+02   1.450000E+02   1.450000E+02   1.450000E+02   1.450000E+02   1.450000E+02   1.450000E+02   1.450000E+02   1.450000E+02   1.450000E+02   1.450000E+02   1.450000E+02   1.450000E+02   1.450000E+02   1.450000E+02
   1.450000E+02   1.450000E+02   1.450000E+02   1.450000E+02   1.450000E+02   1.450000E+02   1.450000E+02   1.450000E+02   1.450000E+02   1.450000E+02   1.450000E+02   1.450000E+02   1.450000E+02   1.450000E+02   1.450000E+02   1.450000E+02   1.450000E+02   1.450000E+02   1.450000E+02   1.450000E+02   1.450000E+02   1.450000E+02   1.450000E+02   1.450000E+02   1.450000E+02   1.450000E+02   1.450000E+02   1.450000E+02   1.450000E+02   1.450000E+02   1.450000E+02   1.450000E+02
   1.450000E+02   1.450000E+02   1.450000E+02   1.450000E+02   1.450000E+02   1.450000E+02   1.450000E+02   1.450000E+02   1.450000E+02   1.450000E+02   1.450000E+02   1.450000E+02   1.450000E+02   1.450000E+02   1.450000E+02   1.450000E+02   1.450000E+02   1.450000E+02   1.450000E+02   1.450000E+02   1.450000E+02   1.450000E+02   1.450000E+02   1.450000E+02   1.450000E+02   1.450000E+02   1.450000E+02   1.450000E+02   1.450000E+02   1.450000E+02   1.450000E+02   1.450000E+02
   1.450000E+02   1.450000E+02   1.450000E+02   1.450000E+02   1.450000E+02   1.450000E+02   1.450000E+02   1.450000E+02   1.450000E+02   1.450000E+02   1.450000E+02   1.450000E+02   1.450000E+02   1.450000E+02   1.450000E+02   1.450000E+02   1.450000E+02   1.450000E+02   1.450000E+02   1.450000E+02   1.450000E+02   1.450000E+02   1.450000E+02   1.450000E+02   1.450000E+02   1.450000E+02   1.450000E+02   1.450000E+02   1.450000E+02   1.450000E+02   1.450000E+02   1.450000E+02
   1.450000E+02   1.450000E+02   1.450000E+02   1.450000E+02   1.450000E+02   1.450000E+02   1.450000E+02   1.450000E+02   1.450000E+02   1.450000E+02   1.450000E+02   1.450000E+02   1.450000E+02   1.450000E+02   1.450000E+02   1.450000E+02   1.450000E+02   1.450000E+02   1.450000E+02   1.450000E+02   1.450000E+02   1.450000E+02   1.450000E+02   1.450000E+02   1.450000E+02   1.450000E+02   1.450000E+02   1.450000E+02   1.450000E+02   1.450000E+02   1.450000E+02   1.450000E+02
   1.450000E+02   1.450000E+02   1.450000E+02   1.450000E+02   1.450000E+02   1.450000E+02   1.450000E+02   1.450000E+02   1.450000E+02   1.450000E+02   1.450000E+02   1.450000E+02   1.450000E+02   1.450000E+02   1.450000E+02   1.450000E+02   1.450000E+02   1.450000E+02   1.450000E+02   1.450000E+02   1.450000E+02   1.450000E+02   1.450000E+02   1.450000E+02   1.450000E+02   1.450000E+02   1.450000E+02   1.450000E+02   1.450000E+02   1.450000E+02   1.450000E+02   1.450000E+02
   1.450000E+02   1.450000E+02   1.450000E+02   1.450000E+02   1.450000E+02   1.450000E+02   1.450000E+02   1.450000E+02   1.450000E+02   1.450000E+02   1.450000E+02   1.450000E+02   1.450000E+02   1.450000E+02   1.450000E+02   1.450000E+02   1.450000E+02   1.450000E+02   1.450000E+02   1.450000E+02   1.450000E+02   1.450000E+02   1.450000E+02   1.450000E+02   1.450000E+02   1.450000E+02   1.450000E+02   1.450000E+02   1.450000E+02   1.450000E+02   1.450000E+02   1.450000E+02
   1.450000E+02   1.450000E+02   1.450000E+02   1.450000E+02   1.450000E+02   1.450000E+02   1.450000E+02   1.450000E+02   1.450000E+02   1.450000E+02   1.450000E+02   1.450000E+02   1.450000E+02   1.450000E+02   1.450000E+02   1.450000E+02   1.450000E+02   1.450000E+02   1.450000E+02   1.450000E+02   1.450000E+02   1.450000E+02   1.450000E+02   1.450000E+02   1.450000E+02   1.450000E+02   1.450000E+02   1.450000E+02   1.450000E+02   1.450000E+02   1.450000E+02   1.450000E+02