# DIS package for MODFLOW-2005 generated by Flopy 3.7.0
         1        40        32         1         4         2
  0
CONSTANT    5.000000E+01                           #delr                          
CONSTANT    5.000000E+01                           #delc                          
CONSTANT    1.000000E+01                           #model_top                     
CONSTANT    0.000000E+00                           #botm layer 1                  
    365.000000            30  1.000000  SS
