# Name file for MODFLOW-2005, generated by Flopy version 3.7.0.
#xll:0.0; yll:0.0; rotation:0.0; units:meters; lenuni:2; start_datetime:1-1-1970
LIST               2  mf.list
DIS               11  mf.dis
BAS6              13  mf.bas
LPF               15  mf.lpf
WEL               20  mf.wel
OC                14  mf.oc
PCG               27  mf.pcg
LMT6              30  mf.lmt6
DATA(BINARY)       1  mf.cbc REPLACE
DATA(BINARY)      51  mf.hds REPLACE
