# WEL package for MODFLOW-2005 generated by Flopy 3.7.0
         2         0 
         2         0 # stress period 1
         1        10        16            86.4
         1        24        16         -1633.0
